Circuit: * C:\Users\Aditya Baskoro\Downloads\UAS_497786\Elday-UAS-2025-1\Task 1\TotemPole_497786.asc

Warning: Multiple definitions of model "2scr375p" Type: BJT
Warning: Multiple definitions of model "bc857b" Type: BJT
Warning: Multiple definitions of model "bc847c" Type: BJT
Warning: Multiple definitions of model "bc847b" Type: BJT
Direct Newton iteration for .op point succeeded.

Date: Wed Dec 24 19:38:06 2025
Total elapsed time: 0.101 seconds.

tnom = 27
temp = 27
method = modified trap
totiter = 2323
traniter = 2290
tranpoints = 1106
accept = 1081
rejected = 25
matrix size = 27
fillins = 4
solver = Normal
Avg thread counts: 2.8/4.6/4.6/2.8
Matrix Compiler1: 1.61 KB object code size  0.3/0.2/[0.1]
Matrix Compiler2: off  [0.2]/0.3/0.2

